ra-optimisation/search-tree-rao/src/test/resources/network/network_with_3WindingTransfo.xiidm
<?xml version="1.0" encoding="UTF-8"?>
<iidm:network xmlns:iidm="http://www.powsybl.org/schema/iidm/1_14" xmlns:reft="http://www.powsybl.org/schema/iidm/ext/reference_terminals/1_0" xmlns:slt="http://www.powsybl.org/schema/iidm/ext/slack_terminal/1_5" id="three-windings-transformer" caseDate="2020-04-05T14:11:00.000+01:00" forecastDistance="0" sourceFormat="test" minimumValidationLevel="STEADY_STATE_HYPOTHESIS">
    <iidm:substation id="S1" country="FR">
        <iidm:voltageLevel id="VL1" nominalV="380.0" topologyKind="BUS_BREAKER">
            <iidm:busBreakerTopology>
                <iidm:bus id="B1" angle="2.4848083448933725E-16"/>
            </iidm:busBreakerTopology>
            <iidm:generator id="G1" energySource="OTHER" minP="50.0" maxP="150.0" voltageRegulatorOn="true" targetP="100.0" targetV="400.0" bus="B1" connectableBus="B1" p="-100.0" q="-0.0">
                <iidm:minMaxReactiveLimits minQ="-1.7976931348623157E308" maxQ="1.7976931348623157E308"/>
            </iidm:generator>
        </iidm:voltageLevel>
        <iidm:voltageLevel id="VL3" nominalV="380.0" topologyKind="BUS_BREAKER">
            <iidm:busBreakerTopology>
                <iidm:bus id="B3" angle="0.32701387650808206"/>
            </iidm:busBreakerTopology>
        </iidm:voltageLevel>
        <iidm:voltageLevel id="VL4" nominalV="380.0" topologyKind="BUS_BREAKER">
            <iidm:busBreakerTopology>
                <iidm:bus id="B4" angle="1.3206371059161741"/>
            </iidm:busBreakerTopology>
            <iidm:load id="LD3" loadType="UNDEFINED" p0="25.0" q0="50.0" bus="B4" connectableBus="B4" p="25.0" q="50.0"/>
        </iidm:voltageLevel>
        <iidm:threeWindingsTransformer id="PS1" r1="2.0" x1="100.0" g1="0.0" b1="0.0" ratedU1="380.0" r2="2.0" x2="100.0" g2="0.0" b2="0.0" ratedU2="380.0" r3="2.0" x3="100.0" g3="0.0" b3="0.0" ratedU3="380.0" ratedU0="400.0" voltageLevelId1="VL1" bus1="B1" connectableBus1="B1" voltageLevelId2="VL3" bus2="B3" connectableBus2="B3" voltageLevelId3="VL4" bus3="B4" connectableBus3="B4" p1="77.74719500395226" p2="-52.74719500395225" p3="-25.0">
            <iidm:property name="angle" value="2.2158836608080854"/>
            <iidm:phaseTapChanger1 regulating="false" lowTapPosition="0" tapPosition="2" solvedTapPosition="2" loadTapChangingCapabilities="true" regulationMode="CURRENT_LIMITER" regulationValue="200.0">
                <iidm:terminalRef id="PS1" side="ONE"/>
                <iidm:step r="0.0" x="0.0" g="0.0" b="0.0" rho="1.0" alpha="-5.0"/>
                <iidm:step r="0.0" x="0.0" g="0.0" b="0.0" rho="1.0" alpha="0.0"/>
                <iidm:step r="0.0" x="0.0" g="0.0" b="0.0" rho="1.0" alpha="5.0"/>
            </iidm:phaseTapChanger1>
            <iidm:phaseTapChanger2 regulating="false" lowTapPosition="0" tapPosition="1" solvedTapPosition="1" loadTapChangingCapabilities="true" regulationMode="CURRENT_LIMITER" regulationValue="200.0">
                <iidm:terminalRef id="PS1" side="TWO"/>
                <iidm:step r="0.0" x="0.0" g="0.0" b="0.0" rho="1.0" alpha="-5.0"/>
                <iidm:step r="0.0" x="0.0" g="0.0" b="0.0" rho="1.0" alpha="0.0"/>
                <iidm:step r="0.0" x="0.0" g="0.0" b="0.0" rho="1.0" alpha="5.0"/>
            </iidm:phaseTapChanger2>
            <iidm:phaseTapChanger3 regulating="false" lowTapPosition="0" tapPosition="1" solvedTapPosition="1" loadTapChangingCapabilities="true" regulationMode="CURRENT_LIMITER" regulationValue="200.0">
                <iidm:terminalRef id="PS1" side="THREE"/>
                <iidm:step r="0.0" x="0.0" g="0.0" b="0.0" rho="1.0" alpha="-5.0"/>
                <iidm:step r="0.0" x="0.0" g="0.0" b="0.0" rho="1.0" alpha="0.0"/>
                <iidm:step r="0.0" x="0.0" g="0.0" b="0.0" rho="1.0" alpha="5.0"/>
            </iidm:phaseTapChanger3>
        </iidm:threeWindingsTransformer>
    </iidm:substation>
    <iidm:substation id="S2" country="FR">
        <iidm:voltageLevel id="VL2" nominalV="380.0" topologyKind="BUS_BREAKER">
            <iidm:busBreakerTopology>
                <iidm:bus id="B2" angle="-1.7659166324115896"/>
            </iidm:busBreakerTopology>
            <iidm:load id="LD2" loadType="UNDEFINED" p0="75.0" q0="50.0" bus="B2" connectableBus="B2" p="75.0" q="50.0"/>
        </iidm:voltageLevel>
    </iidm:substation>
    <iidm:line id="L1" r="4.0" x="200.0" g1="0.0" b1="0.0" g2="0.0" b2="0.0" voltageLevelId1="VL1" bus1="B1" connectableBus1="B1" voltageLevelId2="VL2" bus2="B2" connectableBus2="B2" p1="22.252804996047733" p2="-22.252804996047733"/>
    <iidm:line id="L2" r="2.0" x="100.0" g1="0.0" b1="0.0" g2="0.0" b2="0.0" voltageLevelId1="VL3" bus1="B3" connectableBus1="B3" voltageLevelId2="VL2" bus2="B2" connectableBus2="B2" p1="52.74719500395225" p2="-52.74719500395225"/>
    <iidm:extension id="three-windings-transformer">
        <reft:referenceTerminals>
            <reft:referenceTerminal id="G1"/>
        </reft:referenceTerminals>
    </iidm:extension>
    <iidm:extension id="VL1">
        <slt:slackTerminal id="G1"/>
    </iidm:extension>
</iidm:network>
